Hello world!
New line.
Appended line.
THis is my last line in this filefirst
second
third
fourth
fifth
first
second
third
fourth
fifth
